18

C -0.3684188 -0.39249748 -0.32196337
C -0.4365284 0.05050735 1.1196328
H 0.4528216 -0.44689336 1.6516514
N 0.7802676 -0.21744262 1.6071382
H -0.0383028 1.0777956 1.2177567
C 1.9936829 -0.024464471 1.6194401
C 0.77221006 -0.09208496 -0.30343407
H 0.5700442 0.726347 -0.9812544
H 0.044609047 0.6322306 0.19791159
H -0.1658875 -0.22878511 2.505767
C -1.1948326 -0.12269415 -1.45704
H -1.3306991 -1.1815574 -1.547242
O -0.007577084 0.18944089 -2.1212838
H -1.9559736 0.3756242 -1.9484768
H 1.3022522 -1.1982539 -1.5658729
H 1.9444821 0.32193896 -1.9914668
H -1.4881337 1.2685539 0.10871592
H -1.253259 -0.29935116 1.4851086
