18

C -0.3531887 -0.52697456 -0.2595289
C -0.4169756 -0.0033232109 1.1274544
H 0.4796849 -0.50687987 1.6970055
N 0.78171563 -0.24674363 1.5494792
H -0.051026903 1.060245 1.1249658
C 1.9732895 -0.06774475 1.562072
C 0.7855503 -0.1300232 -0.27252293
H 0.5403426 0.6725449 -0.86676186
H 0.050475575 0.57662094 0.23808646
H -0.26415572 -0.20839761 2.4266007
C -1.1731042 -0.1812798 -1.4011099
H -1.1316257 -1.3134074 -1.4080719
O -0.017846845 0.30448014 -1.9926395
H -2.0091813 0.19179206 -1.9734302
H 1.091794 -1.3163643 -1.4137821
H 1.9857647 0.15327938 -1.982332
H -1.3957363 1.3695171 -0.010134783
H -1.2710726 -0.2598763 1.2875651
