18

C 1.1562582 -0.21916829 -1.4192487
C 1.2391498 0.20946188 0.012309723
H 2.0105684 -0.28543317 0.5319525
N 0.0041870624 -0.008169442 0.7282708
H 1.3782276 1.2086408 0.042755127
C -1.2047484 0.22073264 -0.009061642
C -0.005909592 -0.009074897 2.1829479
H 0.009222791 0.24843572 2.511636
H 0.22005276 -0.15595806 2.5428164
H -0.15910572 -0.098644376 2.5312107
C -1.1429799 -0.23368508 -1.4651971
H -1.1051697 -1.296634 -1.4516445
O -0.01117076 0.3421858 -1.974485
H -2.0188823 0.11993341 -1.9848511
H 1.1101139 -1.2528332 -1.4396187
H 1.9371754 0.16530801 -1.9453869
H -1.3735514 1.2883861 0.06380799
H -2.0434382 -0.24348378 0.5417871
