18

C 1.145421 -0.40364707 -1.4735882
C 1.1943755 0.06729771 0.06779346
H 2.0390377 -0.3980379 0.63040173
N -0.07774213 -0.11045101 0.82973576
H 1.4632709 1.1972345 0.15565479
C -1.3531489 0.04804886 0.100040376
C -0.08634566 0.13101897 2.36589
H 0.15213007 0.94605064 2.7458465
H 0.65832317 -0.53746724 2.013805
H -0.19466586 -0.11987914 2.7335
C -1.2145144 -0.18768576 -1.4735315
H -1.2428058 -1.3084474 -1.5749881
O -0.0014741719 0.2785084 -2.1398947
H -2.0855887 0.20806853 -2.0354328
H 1.2728 -1.2936053 -1.5960686
H 2.0987175 0.2072501 -2.0393643
H -1.5422215 1.3358375 0.099202424
H -2.2255678 -0.060094576 0.5909987
