18

C 1.0475848 -0.3684072 -1.320162
C 1.1078693 0.08461477 0.10796517
H 1.9129101 -0.45402825 0.6756162
N -0.0776595 -0.08323735 0.7437624
H 1.3895111 1.1906501 0.11888772
C -1.2791369 0.08740022 0.11336321
C -0.09726375 0.08603738 2.187435
H 0.13604301 0.8723708 2.5233486
H 0.6356602 -0.5493446 1.859843
H -0.13913354 -0.086773634 2.456351
C -1.1390312 -0.19853422 -1.4101679
H -1.2188251 -1.25452 -1.4767106
O 0.0140070915 0.249415 -1.9399543
H -1.9016973 0.17237209 -1.9435289
H 1.183455 -1.2340531 -1.457005
H 1.9555205 0.22756062 -1.9626136
H -1.38262 1.2588439 0.067504704
H -2.1471944 -0.0003666319 0.6560647
