18

C 1.2225289 -0.36657524 -1.4374666
C 1.2706555 0.12094091 -0.0018258989
H 2.1010005 -0.34670854 0.5651338
N 0.07925169 -0.03821595 0.73507077
H 1.5333208 1.2223747 0.051819902
C -1.144715 0.18184061 0.08009884
C 0.047054604 0.31635833 2.1846209
H 0.31044692 1.0379208 2.5086427
H -0.68776244 -0.33976024 2.4783735
H -0.14759384 -0.35224116 2.331438
C -1.127259 -0.19671737 -1.4904523
H -1.2362913 -1.2712398 -1.3969839
O 0.031599328 0.1580069 -2.0536246
H -1.9347284 0.10730728 -1.9210842
H 1.3155413 -1.2651322 -1.371237
H 1.8492826 0.17172241 -1.8773878
H -1.5171709 1.6232687 -0.06472811
H -2.0022082 0.7429956 0.55080646
