18

C 1.2314973 -0.41851926 -1.3851736
C 1.3284751 0.1505984 -0.011973873
H 2.1185234 -0.32046086 0.6082027
N 0.04240811 -0.14080244 0.71469676
H 1.51169 1.2123032 -0.044837117
C -1.1715447 0.07239625 0.019054413
C 0.06283559 0.23390295 2.1340404
H 0.29978374 0.89787704 2.4455163
H -0.70397156 -0.50362235 2.5565693
H -0.07556926 -0.23844934 2.4941034
C -1.208411 -0.22815245 -1.3683628
H -1.224333 -1.2821561 -1.4184195
O 0.046571925 0.27015793 -2.0026236
H -1.9693851 0.13705784 -1.9954927
H 1.1967204 -1.2912109 -1.398684
H 2.0462873 0.16715577 -1.960711
H -1.459487 1.3744426 -0.000102862716
H -2.072091 -0.092517436 0.6141982
