18

C 1.555512 -0.24002214 -0.2629948
C 1.5637542 0.1680322 1.1952147
H 0.707885 -0.34923202 1.7342247
N 0.31137884 -0.053448148 1.6819887
H 1.2307633 1.2048627 1.331408
C -0.9427394 0.13873363 1.6865726
C 0.28342754 0.10731734 -0.255604
H 0.48352057 0.87691706 -0.9554849
H -0.42716068 -0.6055917 0.26271045
H -0.12950405 -0.15629761 2.5456722
C -1.1474719 -0.18264724 -1.457382
H -1.3062769 -1.2239448 -1.5912213
O 0.046734318 0.2507577 -2.102389
H -1.9272645 0.34124434 -2.0073173
H 1.3319373 -1.2517672 -1.5234799
H 2.0897565 0.31130552 -1.9464428
H -1.3905936 1.2923393 0.06271783
H -1.7788008 -0.21399488 1.5476087
